data/ENWL/enwl_4wire/network_9/Feeder_4/Lines.txt
! Imported from Lines.txt, with modified linecodes
! ----------------------------------------------------------------------------------------------
New Line.LINE0 Bus1=sourcebus.1.2.3.4 Bus2=1.1.2.3.4 phases=4 Linecode=LC5 Length=1 Units=m
New Line.LINE1 Bus1=1.1.2.3.4 Bus2=2.1.2.3.4 phases=4 Linecode=LC5 Length=0.83815 Units=m
New Line.LINE2 Bus1=2.1.2.3.4 Bus2=3.1.2.3.4 phases=4 Linecode=LC5 Length=0.053852 Units=m
New Line.LINE3 Bus1=3.1.2.3.4 Bus2=4.1.2.3.4 phases=4 Linecode=LC5 Length=0.060827 Units=m
New Line.LINE4 Bus1=4.1.2.3.4 Bus2=5.1.2.3.4 phases=4 Linecode=LC5 Length=0.080625 Units=m
New Line.LINE5 Bus1=5.1.2.3.4 Bus2=6.1.2.3.4 phases=4 Linecode=LC5 Length=0.0728 Units=m
New Line.LINE6 Bus1=6.1.2.3.4 Bus2=7.1.2.3.4 phases=4 Linecode=LC5 Length=0.053852 Units=m
New Line.LINE7 Bus1=7.1.2.3.4 Bus2=8.1.2.3.4 phases=4 Linecode=LC5 Length=0.067082 Units=m
New Line.LINE8 Bus1=8.1.2.3.4 Bus2=9.1.2.3.4 phases=4 Linecode=LC5 Length=0.07071 Units=m
New Line.LINE9 Bus1=9.1.2.3.4 Bus2=10.1.2.3.4 phases=4 Linecode=LC5 Length=0.05657 Units=m
New Line.LINE10 Bus1=10.1.2.3.4 Bus2=11.1.2.3.4 phases=4 Linecode=LC5 Length=0.053852 Units=m
New Line.LINE11 Bus1=11.1.2.3.4 Bus2=12.1.2.3.4 phases=4 Linecode=LC5 Length=0.058309 Units=m
New Line.LINE12 Bus1=12.1.2.3.4 Bus2=13.1.2.3.4 phases=4 Linecode=LC5 Length=1.4328 Units=m
New Line.LINE13 Bus1=13.1.2.3.4 Bus2=14.1.2.3.4 phases=4 Linecode=LC5 Length=0.072801 Units=m
New Line.LINE14 Bus1=14.1.2.3.4 Bus2=15.1.2.3.4 phases=4 Linecode=LC5 Length=0.08 Units=m
New Line.LINE15 Bus1=15.1.2.3.4 Bus2=16.1.2.3.4 phases=4 Linecode=LC5 Length=0.06 Units=m
New Line.LINE16 Bus1=16.1.2.3.4 Bus2=17.1.2.3.4 phases=4 Linecode=LC5 Length=0.063246 Units=m
New Line.LINE17 Bus1=17.1.2.3.4 Bus2=18.1.2.3.4 phases=4 Linecode=LC5 Length=0.067082 Units=m
New Line.LINE18 Bus1=18.1.2.3.4 Bus2=19.1.2.3.4 phases=4 Linecode=LC5 Length=0.080623 Units=m
New Line.LINE19 Bus1=19.1.2.3.4 Bus2=20.1.2.3.4 phases=4 Linecode=LC5 Length=0.064031 Units=m
New Line.LINE20 Bus1=20.1.2.3.4 Bus2=21.1.2.3.4 phases=4 Linecode=LC5 Length=0.05 Units=m
New Line.LINE21 Bus1=21.1.2.3.4 Bus2=22.1.2.3.4 phases=4 Linecode=LC5 Length=0.04472 Units=m
New Line.LINE22 Bus1=22.1.2.3.4 Bus2=23.1.2.3.4 phases=4 Linecode=LC5 Length=0.044721 Units=m
New Line.LINE23 Bus1=23.1.2.3.4 Bus2=24.1.2.3.4 phases=4 Linecode=LC5 Length=0.25632 Units=m
New Line.LINE24 Bus1=24.1.2.3.4 Bus2=25.1.2.3.4 phases=4 Linecode=LC5 Length=0.063246 Units=m
New Line.LINE25 Bus1=25.1.2.3.4 Bus2=26.1.2.3.4 phases=4 Linecode=LC5 Length=0.05 Units=m
New Line.LINE26 Bus1=26.1.2.3.4 Bus2=27.1.2.3.4 phases=4 Linecode=LC5 Length=0.092195 Units=m
New Line.LINE27 Bus1=27.1.2.3.4 Bus2=28.1.2.3.4 phases=4 Linecode=LC5 Length=0.072111 Units=m
New Line.LINE28 Bus1=28.1.2.3.4 Bus2=29.1.2.3.4 phases=4 Linecode=LC5 Length=0.098489 Units=m
New Line.LINE29 Bus1=29.1.2.3.4 Bus2=30.1.2.3.4 phases=4 Linecode=LC5 Length=0.070711 Units=m
New Line.LINE30 Bus1=30.1.2.3.4 Bus2=31.1.2.3.4 phases=4 Linecode=LC5 Length=0.07 Units=m
New Line.LINE31 Bus1=31.1.2.3.4 Bus2=32.1.2.3.4 phases=4 Linecode=LC5 Length=0.06 Units=m
New Line.LINE32 Bus1=32.1.2.3.4 Bus2=33.1.2.3.4 phases=4 Linecode=LC5 Length=0.053852 Units=m
New Line.LINE33 Bus1=33.1.2.3.4 Bus2=34.1.2.3.4 phases=4 Linecode=LC5 Length=2.3479 Units=m
New Line.LINE34 Bus1=34.1.2.3.4 Bus2=35.1.2.3.4 phases=4 Linecode=LC5 Length=0.78 Units=m
New Line.LINE35 Bus1=35.1.2.3.4 Bus2=36.1.2.3.4 phases=4 Linecode=LC5 Length=0.1118 Units=m
New Line.LINE36 Bus1=36.1.2.3.4 Bus2=37.1.2.3.4 phases=4 Linecode=LC5 Length=0.13892 Units=m
New Line.LINE37 Bus1=37.1.2.3.4 Bus2=38.1.2.3.4 phases=4 Linecode=LC5 Length=0.17692 Units=m
New Line.LINE38 Bus1=38.1.2.3.4 Bus2=39.1.2.3.4 phases=4 Linecode=LC5 Length=0.13038 Units=m
New Line.LINE39 Bus1=39.1.2.3.4 Bus2=40.1.2.3.4 phases=4 Linecode=LC5 Length=0.089442 Units=m
New Line.LINE40 Bus1=40.1.2.3.4 Bus2=41.1.2.3.4 phases=4 Linecode=LC5 Length=0.14866 Units=m
New Line.LINE41 Bus1=41.1.2.3.4 Bus2=42.1.2.3.4 phases=4 Linecode=LC5 Length=0.14142 Units=m
New Line.LINE42 Bus1=42.1.2.3.4 Bus2=43.1.2.3.4 phases=4 Linecode=LC5 Length=0.13 Units=m
New Line.LINE43 Bus1=43.1.2.3.4 Bus2=44.1.2.3.4 phases=4 Linecode=LC5 Length=0.15297 Units=m
New Line.LINE44 Bus1=44.1.2.3.4 Bus2=45.1.2.3.4 phases=4 Linecode=LC5 Length=0.11705 Units=m
New Line.LINE45 Bus1=45.1.2.3.4 Bus2=46.1.2.3.4 phases=4 Linecode=LC5 Length=0.094868 Units=m
New Line.LINE46 Bus1=46.1.2.3.4 Bus2=47.1.2.3.4 phases=4 Linecode=LC5 Length=0.62769 Units=m
New Line.LINE47 Bus1=47.1.2.3.4 Bus2=48.1.2.3.4 phases=4 Linecode=LC5 Length=2.4055 Units=m
New Line.LINE48 Bus1=48.1.2.3.4 Bus2=49.1.2.3.4 phases=4 Linecode=LC5 Length=0.15652 Units=m
New Line.LINE49 Bus1=49.1.2.3.4 Bus2=50.1.2.3.4 phases=4 Linecode=LC5 Length=0.15621 Units=m
New Line.LINE50 Bus1=50.1.2.3.4 Bus2=51.1.2.3.4 phases=4 Linecode=LC5 Length=0.098994 Units=m
New Line.LINE51 Bus1=51.1.2.3.4 Bus2=52.1.2.3.4 phases=4 Linecode=LC5 Length=0.14213 Units=m
New Line.LINE52 Bus1=52.1.2.3.4 Bus2=53.1.2.3.4 phases=4 Linecode=LC5 Length=0.16125 Units=m
New Line.LINE53 Bus1=53.1.2.3.4 Bus2=54.1.2.3.4 phases=4 Linecode=LC5 Length=0.15524 Units=m
New Line.LINE54 Bus1=54.1.2.3.4 Bus2=55.1.2.3.4 phases=4 Linecode=LC5 Length=0.17117 Units=m
New Line.LINE55 Bus1=55.1.2.3.4 Bus2=56.1.2.3.4 phases=4 Linecode=LC5 Length=0.19 Units=m
New Line.LINE56 Bus1=56.1.2.3.4 Bus2=57.1.2.3.4 phases=4 Linecode=LC5 Length=0.15133 Units=m
New Line.LINE57 Bus1=57.1.2.3.4 Bus2=58.1.2.3.4 phases=4 Linecode=LC5 Length=0.12369 Units=m
New Line.LINE58 Bus1=58.1.2.3.4 Bus2=59.1.2.3.4 phases=4 Linecode=LC5 Length=0.23345 Units=m
New Line.LINE59 Bus1=59.1.2.3.4 Bus2=60.1.2.3.4 phases=4 Linecode=LC5 Length=0.44147 Units=m
New Line.LINE60 Bus1=60.1.2.3.4 Bus2=61.1.2.3.4 phases=4 Linecode=LC5 Length=1.4188 Units=m
New Line.LINE61 Bus1=61.1.2.3.4 Bus2=62.1.2.3.4 phases=4 Linecode=LC5 Length=0.33734 Units=m
New Line.LINE62 Bus1=62.1.2.3.4 Bus2=63.1.2.3.4 phases=4 Linecode=LC5 Length=0.41231 Units=m
New Line.LINE63 Bus1=63.1.2.3.4 Bus2=64.1.2.3.4 phases=4 Linecode=LC5 Length=0.82219 Units=m
New Line.LINE64 Bus1=64.1.2.3.4 Bus2=65.1.2.3.4 phases=4 Linecode=LC5 Length=0.86729 Units=m
New Line.LINE65 Bus1=65.1.2.3.4 Bus2=66.1.2.3.4 phases=4 Linecode=LC5 Length=1.9055 Units=m
New Line.LINE66 Bus1=66.1.2.3.4 Bus2=67.1.2.3.4 phases=4 Linecode=LC5 Length=0.2912 Units=m
New Line.LINE67 Bus1=67.1.2.3.4 Bus2=68.1.2.3.4 phases=4 Linecode=LC5 Length=0.30806 Units=m
New Line.LINE68 Bus1=68.1.2.3.4 Bus2=69.1.2.3.4 phases=4 Linecode=LC5 Length=0.2816 Units=m
New Line.LINE69 Bus1=69.1.2.3.4 Bus2=70.1.2.3.4 phases=4 Linecode=LC5 Length=0.44944 Units=m
New Line.LINE70 Bus1=70.1.2.3.4 Bus2=71.1.2.3.4 phases=4 Linecode=LC5 Length=0.22136 Units=m
New Line.LINE71 Bus1=71.1.2.3.4 Bus2=72.1.2.3.4 phases=4 Linecode=LC5 Length=0.39115 Units=m
New Line.LINE72 Bus1=72.1.2.3.4 Bus2=73.1.2.3.4 phases=4 Linecode=LC5 Length=0.27203 Units=m
New Line.LINE73 Bus1=73.1.2.3.4 Bus2=74.1.2.3.4 phases=4 Linecode=LC5 Length=0.26173 Units=m
New Line.LINE74 Bus1=74.1.2.3.4 Bus2=75.1.2.3.4 phases=4 Linecode=LC5 Length=0.4272 Units=m
New Line.LINE75 Bus1=75.1.2.3.4 Bus2=76.1.2.3.4 phases=4 Linecode=LC5 Length=0.47011 Units=m
New Line.LINE76 Bus1=76.1.2.3.4 Bus2=77.1.2.3.4 phases=4 Linecode=LC5 Length=2.5678 Units=m
New Line.LINE77 Bus1=77.1.2.3.4 Bus2=78.1.2.3.4 phases=4 Linecode=LC5 Length=0.10817 Units=m
New Line.LINE78 Bus1=78.1.2.3.4 Bus2=79.1.2.3.4 phases=4 Linecode=LC5 Length=0.10817 Units=m
New Line.LINE79 Bus1=79.1.2.3.4 Bus2=80.1.2.3.4 phases=4 Linecode=LC5 Length=0.092195 Units=m
New Line.LINE80 Bus1=80.1.2.3.4 Bus2=81.1.2.3.4 phases=4 Linecode=LC5 Length=0.092196 Units=m
New Line.LINE81 Bus1=81.1.2.3.4 Bus2=82.1.2.3.4 phases=4 Linecode=LC5 Length=0.078102 Units=m
New Line.LINE82 Bus1=82.1.2.3.4 Bus2=83.1.2.3.4 phases=4 Linecode=LC5 Length=0.064031 Units=m
New Line.LINE83 Bus1=83.1.2.3.4 Bus2=84.1.2.3.4 phases=4 Linecode=LC5 Length=0.064031 Units=m
New Line.LINE84 Bus1=84.1.2.3.4 Bus2=85.1.2.3.4 phases=4 Linecode=LC5 Length=0.1253 Units=m
New Line.LINE85 Bus1=85.1.2.3.4 Bus2=86.1.2.3.4 phases=4 Linecode=LC5 Length=2.7512 Units=m
New Line.LINE86 Bus1=86.1.2.3.4 Bus2=87.1.2.3.4 phases=4 Linecode=LC5 Length=3.2063 Units=m
New Line.LINE87 Bus1=87.1.2.3.4 Bus2=88.1.2.3.4 phases=4 Linecode=LC5 Length=0.66038 Units=m
New Line.LINE88 Bus1=88.1.2.3.4 Bus2=89.1.2.3.4 phases=4 Linecode=LC5 Length=0.25239 Units=m
New Line.LINE89 Bus1=89.1.2.3.4 Bus2=90.1.2.3.4 phases=4 Linecode=LC5 Length=0.17804 Units=m
New Line.LINE90 Bus1=90.1.2.3.4 Bus2=91.1.2.3.4 phases=4 Linecode=LC5 Length=0.12207 Units=m
New Line.LINE91 Bus1=91.1.2.3.4 Bus2=92.1.2.3.4 phases=4 Linecode=LC5 Length=0.11402 Units=m
New Line.LINE92 Bus1=92.1.2.3.4 Bus2=93.1.2.3.4 phases=4 Linecode=LC5 Length=0.13038 Units=m
New Line.LINE93 Bus1=93.1.2.3.4 Bus2=94.1.2.3.4 phases=4 Linecode=LC5 Length=0.080622 Units=m
New Line.LINE94 Bus1=94.1.2.3.4 Bus2=95.1.2.3.4 phases=4 Linecode=LC5 Length=0.080623 Units=m
New Line.LINE95 Bus1=95.1.2.3.4 Bus2=96.1.2.3.4 phases=4 Linecode=LC5 Length=0.09434 Units=m
New Line.LINE96 Bus1=96.1.2.3.4 Bus2=97.1.2.3.4 phases=4 Linecode=LC5 Length=0.11705 Units=m
New Line.LINE97 Bus1=97.1.2.3.4 Bus2=98.1.2.3.4 phases=4 Linecode=LC5 Length=0.098489 Units=m
New Line.LINE98 Bus1=98.1.2.3.4 Bus2=99.1.2.3.4 phases=4 Linecode=LC5 Length=0.12369 Units=m
New Line.LINE99 Bus1=99.1.2.3.4 Bus2=100.1.2.3.4 phases=4 Linecode=LC5 Length=0.10198 Units=m
New Line.LINE100 Bus1=100.1.2.3.4 Bus2=101.1.2.3.4 phases=4 Linecode=LC5 Length=0.1005 Units=m
New Line.LINE101 Bus1=101.1.2.3.4 Bus2=102.1.2.3.4 phases=4 Linecode=LC5 Length=0.060828 Units=m
New Line.LINE102 Bus1=102.1.2.3.4 Bus2=103.1.2.3.4 phases=4 Linecode=LC5 Length=0.04 Units=m
New Line.LINE103 Bus1=103.1.2.3.4 Bus2=104.1.2.3.4 phases=4 Linecode=LC5 Length=0.041231 Units=m
New Line.LINE104 Bus1=104.1.2.3.4 Bus2=105.1.2.3.4 phases=4 Linecode=LC5 Length=0.031623 Units=m
New Line.LINE105 Bus1=105.1.2.3.4 Bus2=106.1.2.3.4 phases=4 Linecode=LC5 Length=0.041231 Units=m
New Line.LINE106 Bus1=106.1.2.3.4 Bus2=107.1.2.3.4 phases=4 Linecode=LC5 Length=0.28231 Units=m
New Line.LINE107 Bus1=107.1.2.3.4 Bus2=108.1.2.3.4 phases=4 Linecode=LC5 Length=2.6796 Units=m
New Line.LINE108 Bus1=108.1.2.3.4 Bus2=109.1.2.3.4 phases=4 Linecode=LC5 Length=0.40311 Units=m
New Line.LINE109 Bus1=109.1.2.3.4 Bus2=110.1.2.3.4 phases=4 Linecode=LC5 Length=0.2377 Units=m
New Line.LINE110 Bus1=110.1.2.3.4 Bus2=111.1.2.3.4 phases=4 Linecode=LC5 Length=0.23195 Units=m
New Line.LINE111 Bus1=111.1.2.3.4 Bus2=112.1.2.3.4 phases=4 Linecode=LC5 Length=0.2508 Units=m
New Line.LINE112 Bus1=112.1.2.3.4 Bus2=113.1.2.3.4 phases=4 Linecode=LC5 Length=0.24166 Units=m
New Line.LINE113 Bus1=113.1.2.3.4 Bus2=114.1.2.3.4 phases=4 Linecode=LC5 Length=0.17692 Units=m
New Line.LINE114 Bus1=114.1.2.3.4 Bus2=115.1.2.3.4 phases=4 Linecode=LC5 Length=0.16279 Units=m
New Line.LINE115 Bus1=115.1.2.3.4 Bus2=116.1.2.3.4 phases=4 Linecode=LC5 Length=0.43382 Units=m
New Line.LINE116 Bus1=116.1.2.3.4 Bus2=117.1.2.3.4 phases=4 Linecode=LC5 Length=1.5412 Units=m
New Line.LINE117 Bus1=117.1.2.3.4 Bus2=118.1.2.3.4 phases=4 Linecode=LC8 Length=2.3614 Units=m
New Line.LINE118 Bus1=118.1.2.3.4 Bus2=119.1.2.3.4 phases=4 Linecode=LC1 Length=4.959 Units=m
New Line.LINE119 Bus1=118.1.2.3.4 Bus2=120.1.2.3.4 phases=4 Linecode=LC1 Length=4.959 Units=m
New Line.LINE120 Bus1=118.1.2.3.4 Bus2=121.1.2.3.4 phases=4 Linecode=LC1 Length=4.6208 Units=m
New Line.LINE121 Bus1=118.1.2.3.4 Bus2=122.1.2.3.4 phases=4 Linecode=LC1 Length=4.959 Units=m
New Line.LINE122 Bus1=118.1.2.3.4 Bus2=123.1.2.3.4 phases=4 Linecode=LC1 Length=4.959 Units=m
New Line.LINE123 Bus1=118.1.2.3.4 Bus2=124.1.2.3.4 phases=4 Linecode=LC1 Length=4.6208 Units=m
New Line.LINE124 Bus1=118.1.2.3.4 Bus2=125.1.2.3.4 phases=4 Linecode=LC1 Length=4.6208 Units=m
New Line.LINE125 Bus1=118.1.2.3.4 Bus2=126.1.2.3.4 phases=4 Linecode=LC1 Length=4.959 Units=m
New Line.LINE126 Bus1=118.1.2.3.4 Bus2=127.1.2.3.4 phases=4 Linecode=LC1 Length=4.959 Units=m
New Line.LINE127 Bus1=118.1.2.3.4 Bus2=128.1.2.3.4 phases=4 Linecode=LC1 Length=4.959 Units=m
New Line.LINE128 Bus1=118.1.2.3.4 Bus2=129.1.2.3.4 phases=4 Linecode=LC1 Length=4.6208 Units=m
New Line.LINE129 Bus1=118.1.2.3.4 Bus2=130.1.2.3.4 phases=4 Linecode=LC1 Length=4.959 Units=m
New Line.LINE130 Bus1=118.1.2.3.4 Bus2=131.1.2.3.4 phases=4 Linecode=LC1 Length=4.959 Units=m
New Line.LINE131 Bus1=118.1.2.3.4 Bus2=132.1.2.3.4 phases=4 Linecode=LC1 Length=4.6208 Units=m
New Line.LINE132 Bus1=118.1.2.3.4 Bus2=133.1.2.3.4 phases=4 Linecode=LC1 Length=4.959 Units=m
New Line.LINE133 Bus1=118.1.2.3.4 Bus2=134.1.2.3.4 phases=4 Linecode=LC1 Length=4.959 Units=m
New Line.LINE134 Bus1=118.1.2.3.4 Bus2=135.1.2.3.4 phases=4 Linecode=LC1 Length=4.6208 Units=m
New Line.LINE135 Bus1=118.1.2.3.4 Bus2=136.1.2.3.4 phases=4 Linecode=LC1 Length=4.959 Units=m
New Line.LINE136 Bus1=118.1.2.3.4 Bus2=137.1.2.3.4 phases=4 Linecode=LC1 Length=4.959 Units=m
New Line.LINE137 Bus1=118.1.2.3.4 Bus2=138.1.2.3.4 phases=4 Linecode=LC1 Length=14.0866 Units=m
New Line.LINE138 Bus1=118.1.2.3.4 Bus2=139.1.2.3.4 phases=4 Linecode=LC1 Length=10.3011 Units=m
! ----------------------------------------------------------------------------------------------